/*--------------------------------*- C++ -*----------------------------------*\
  =========                 |
  \\      /  F ield         | OpenFOAM: The Open Source CFD Toolbox
   \\    /   O peration     | Website:  https://openfoam.org
    \\  /    A nd           | Version:  9
     \\/     M anipulation  |
\*---------------------------------------------------------------------------*/
FoamFile
{
    format      ascii;
    class       volVectorField;
    object      U;
}
// * * * * * * * * * * * * * * * * * * * * * * * * * * * * * * * * * * * * * //

dimensions      [0 1 -1 0 0 0 0];

internalField   uniform (165.65 0 0); //Mach 0.5 = 165.65 m/s

boundaryField
{
    inlet
    {
        type            fixedValue;
        value           uniform (165.65 0 0);
    }

    outlet
    {
        type            inletOutlet;
        inletValue      uniform (0 0 0);
        value           uniform (0 0 0);
    }

    bottomWall
    {
        type            freestreamVelocity;
        freestreamValue uniform (165.65 0 0);
    }

    topWall
    {
        type            freestreamVelocity;
        freestreamValue uniform (165.65 0 0);
    }

    sphereWall
    {
        type            noSlip;
    }

    defaultFaces
    {
        type            empty;
    }
}

// ************************************************************************* //